test/test_files/validation_tests/case13659pegase_res.m
function mpc = case13659pegase_res
%CASE13659PEGASE_RES

%% MATPOWER Case Format : Version 2
mpc.version = '2';

%%-----  Power Flow Data  -----%%
%% system MVA base
mpc.baseMVA = 100;

%% bus data
%	bus_i	type	Pd	Qd	Gs	Bs	area	Vm	Va	baseKV	zone	Vmax	Vmin
mpc.bus = [
	1	3	0	0	0	0	0	1.031695	0	20	6	1.1	0.9;
	2	1	72.68	45	0	6.61	0	1.00250092	-11.2809612	150	9	1.1	0.9;
	3	1	378.4	98.5	0	16.61	0	0.991896481	-10.278601	220	6	1.1	0.9;
	4	1	134	19.1	0	0.08	0	1.00510605	9.42883882	154	1	1.1	0.9;
	5	1	151	48.8	0	4.69	0	0.99065501	5.44628237	220	5	1.1	0.9;
	6	1	171.41	23.4	0	2.1	0	1.00445873	21.1037196	220	5	1.1	0.9;
	7	1	45.95	14	0	13.34	0	0.979996386	-22.443429	220	6	1.1	0.9;
	8	1	343.4	53.1	0.70508	36.832433	0	1.02452575	-14.9955801	380	6	1.1	0.9;
	9	1	-0	-0	0	75.076713	0	0.995376879	12.2123399	380	5	1.1	0.9;
	10	1	31.03	10.3	0	0.65	0	0.935542915	-14.4716824	110	21	1.1	0.9;
	11	1	0	-0	0	3.41	0	1.03851426	0.501044124	154	1	1.1	0.9;
	12	2	0	0	0	0	0	1.004054	96.9410425	20	3	1.1	0.9;
	13	1	14.3	2	0	1.91	0	1.04625609	18.2440162	154	1	1.1	0.9;
	14	1	134	24.7	0	12.44	0	1.02915705	2.93770352	220	5	1.1	0.9;
	15	1	0	0	0	0	0	0.967333505	-11.9231445	150	9	1.1	0.9;
	16	1	-6.11	2	0	0.47	0	1.04840021	-7.09117893	150	9	1.1	0.9;
	17	1	-22.74	-8.32	0	6.5	0	1.01080672	-21.5446795	220	6	1.1	0.9;
	18	2	0	0	0	0	0	1.043087	9.90486386	20	14	1.1	0.9;
	19	1	59.67	26.7	0	12.84	0	1.02981792	-22.3912589	220	4	1.1	0.9;
	20	1	30.6	4.3	0	5.15	0	0.995807997	29.1425812	154	1	1.1	0.9;
	21	1	0	-0	0.234457	-0.195381	0	1.0244618	-14.1314702	380	6	1.1	0.9;
	22	1	67.67	12.1	0	2.18	0	1.012623	33.9843931	220	3	1.1	0.9;
	23	1	0	0	0.295874	20.603438	0	1.02325245	45.4788382	380	3	1.1	0.9;
	24	1	25.33	7.5	0	2.39	0	0.977846289	-13.9936079	110	12	1.1	0.9;
	25	1	1.4	0.2	0	4.93	0	1.01187776	29.6542817	154	1	1.1	0.9;
	26	1	161.2	39.3	0	30.71	0	1.03237606	5.33955927	220	5	1.1	0.9;
	27	1	0	-0	0	0.85	0	1.03239009	8.82103087	220	5	1.1	0.9;
	28	1	19.62	7.1	0	1.15	0	0.999412963	-5.24923711	110	19	1.1	0.9;
	29	2	0	0	0	0	0	1.033319	0.0992409514	20	18	1.1	0.9;
	30	1	31.94	8.8	0	0.73	0	1.01552438	-5.64370385	110	22	1.1	0.9;
	31	1	0	-0	0.235277	0.313936	0	1.02952555	40.1069089	220	3	1.1	0.9;
	32	1	167.3	54.8	0	110.54	0	1.0103685	24.7744671	380	5	1.1	0.9;
	33	2	0	0	0	0	0	1.018631	-12.8545588	20	4	1.1	0.9;
	34	1	-0	0	0	14.82	0	1.04982421	40.1015877	380	13	1.1	0.9;
	35	1	0	0	0	0	0	1.00983841	-11.7315264	150	9	1.1	0.9;
	36	1	152.9	49.4	0	27.65	0	0.983894279	13.5409339	380	5	1.1	0.9;
	37	1	-0	0	0	0.56	0	1.02808772	-10.1179296	150	9	1.1	0.9;
	38	1	69.68	43.2	0	6.3	0	0.918518704	-13.9020503	150	9	1.1	0.9;
	39	2	0	0	0	0	0	1.073284	-0.993809572	20	9	1.1	0.9;
	40	1	0	-0	0	37.54	0	1.00280336	-16.3738373	220	4	1.1	0.9;
	41	1	0	-0	0	0.25	0	1.02084564	-11.8512694	220	4	1.1	0.9;
	42	2	0	0	0	0	0	0.985213	25.6639325	11	1	1.1	0.9;
	43	1	13.51	4.9	0	1.8	0	1.02316409	-3.50176653	110	19	1.1	0.9;
	44	1	10.51	3.5	0	0.31	0	0.990883933	-12.2222403	110	12	1.1	0.9;
	45	2	0	0	0	0	0	1.012099	-20.1583793	20	4	1.1	0.9;
	46	1	-0	0	0.12	15.34	0	1.04062602	-0.0863003422	220	19	1.1	0.9;
	47	1	9.21	2.6	0	2	0	0.975606248	-7.71412649	110	18	1.1	0.9;
	48	1	42.75	12.8	0	13.3	0	1.05676203	52.9424447	220	8	1.1	0.9;
	49	1	-0	0	0.019959	0.320041	0	0.998827813	-11.6920182	150	10	1.1	0.9;
	50	1	16.02	4.54	0	0.1	0	0.983507059	-9.91457009	110	23	1.1	0.9;
	51	2	0	0	0	0	0	1.011416	41.5994983	14.4	1	1.1	0.9;
	52	1	27.9	4	0	4.23	0	0.988126214	13.2123284	154	1	1.1	0.9;
	53	1	20.82	7.9	0	26.89	0	1.01610368	-22.7503389	380	4	1.1	0.9;
	54	2	0	0	0	0	0	1.021005	21.8561862	20	14	1.1	0.9;
	55	1	0	0	0	7.27	0	1.03727434	5.07932934	220	5	1.1	0.9;
	56	1	10.11	3.7	0	0.81	0	1.04365732	-4.0124626	110	19	1.1	0.9;
	57	1	10.01	2.7	0	1.14	0	0.954269437	-7.65941298	110	18	1.1	0.9;
	58	1	6.31	-0	0	0.67	0	0.981117242	-5.94154983	110	18	1.1	0.9;
	59	1	2.9	0.9	0	0.6	0	1.03861489	-5.00846499	110	15	1.1	0.9;
	60	1	-0	0	0.318913	17.760815	0	1.00709569	-8.9555403	220	6	1.1	0.9;
	61	1	-0	-0	0.549745	0.432068	0	1.04743018	30.9209274	380	2	1.1	0.9;
	62	2	0	0	0	0	0	1.058268	13.5488791	20	5	1.1	0.9;
	63	2	0	0	0	0	0	1.058268	13.5488791	20	5	1.1	0.9;
	64	1	151.8	48.3	0	5.53	0	1.0085713	-21.4818121	220	4	1.1	0.9;
	65	1	127.6	31.8	0	20.51	0	0.999184174	27.1388748	150	8	1.1	0.9;
	66	2	0	0	0	0	0	1.034768	7.13322837	20	22	1.1	0.9;
	67	1	0	0	0	0.84	0	0.975761463	-7.37265042	110	21	1.1	0.9;
	68	2	0	0	0	0	0	1.035023	-12.0094134	20	4	1.1	0.9;
	69	2	0	0	0	0	0	1.035023	-12.0094134	20	4	1.1	0.9;
	70	1	110.5	-26.8	0	16.37	0	1.00864472	-8.23145133	220	6	1.1	0.9;
	71	1	-0	-0	0	0	0	1.02036092	12.0198974	20	5	1.1	0.9;
	72	1	-0	-0	0	0	0	1.02036092	12.0198974	20	5	1.1	0.9;
	73	1	0	0	0	1.23	0	0.994054633	36.7748411	220	3	1.1	0.9;
	74	1	0	-0	0	0	0	1.0250025	16.5110087	20	5	1.1	0.9;
	75	1	0	-0	0	0	0	1.0250025	16.5110087	20	5	1.1	0.9;
	76	1	0	-0	0	0	0	1.0250025	16.5110087	20	5	1.1	0.9;
	77	2	0	0	0	0	0	1.038344	8.86025477	20	5	1.1	0.9;
	78	2	0	0	0	0	0	1.027383	16.5455622	20	5	1.1	0.9;
	79	2	0	0	0	0	0	1.016716	23.4147554	20	5	1.1	0.9;
	80	1	140	79.7	0	6.5	0	1.00823836	10.4350079	220	3	1.1	0.9;
	81	1	21.6	3	0	3.54	0	0.990484083	12.1640284	154	1	1.1	0.9;
	82	1	0	-0	0	2.31	0	1.00485731	8.68885033	380	5	1.1	0.9;
	83	1	119.2	20.7	0	3.31	0	1.01717708	3.25275174	220	5	1.1	0.9;
	84	1	26.43	9.9	0	9.57	0	0.990370325	-14.6552313	110	22	1.1	0.9;
	85	1	0.24	-1.66	0	0.65	0	1.02456721	2.98853761	110	18	1.1	0.9;
	86	2	0	0	0	0	0	1.023881	-6.18022324	20	6	1.1	0.9;
	87	1	-0	0	0	0	0	1.01464978	-10.8292592	20	6	1.1	0.9;
	88	1	-0	0	0	0	0	1.01464978	-10.8292592	20	6	1.1	0.9;
	89	1	0	0	0	58.57	0	1.06703127	73.2652862	380	3	1.1	0.9;
	90	1	-0	0	0	1.34	0	0.965697991	-5.84728922	110	18	1.1	0.9;
	91	1	187.9	110.2	0	21.25	0	1.01030774	32.3018189	380	3	1.1	0.9;
	92	1	14.92	5.5	0	1.31	0	1.05638039	-2.72076187	110	15	1.1	0.9;
	93	1	-18.52	6.1	0	0.79	0	0.933013994	-12.4825882	150	9	1.1	0.9;
	94	2	0	0	0	0	0	1.022611	19.3974856	11	1	1.1	0.9;
	95	1	4.61	1.7	0	2.32	0	0.998122915	1.43702182	110	19	1.1	0.9;
	96	2	0	0	0	0	0	1.043225	-5.81031758	20	4	1.1	0.9;
	97	2	0	0	0	0	0	1.043225	-5.81031758	20	4	1.1	0.9;
	98	2	0	0	0	0	0	1.043225	-5.81031758	20	4	1.1	0.9;
	99	2	0	0	0	0	0	1.031885	-13.2532484	20	4	1.1	0.9;
	100	2	0	0	0	0	0	1.031885	-13.2532484	20	4	1.1	0.9;
	101	2	0	0	0	0	0	1.043225	-5.81031758	20	4	1.1	0.9;
	102	2	0	0	0	0	0	1.043225	-5.81031758	20	4	1.1	0.9;
	103	1	62.87	20.5	0	1.15	0	0.997076211	25.8766111	150	8	1.1	0.9;
	104	2	0	0	0	0	0	1.052257	46.7364832	20	3	1.1	0.9;
	105	1	13.5	14.8	0	132.435168	0	1.14236613	-1.3460766	380	9	1.2	0.8;
	106	1	126.3	42.4	0	55.24	0	1.04208733	30.4905305	150	8	1.1	0.9;
	107	2	0	0	0	0	0	1.028153	79.1414007	20	3	1.1	0.9;
	108	1	6.91	-4.6	0	5.75	0	1.02022299	-14.7420917	220	4	1.1	0.9;
	109	1	15.72	5.2	0	0.11	0	0.997966719	-14.3481713	110	12	1.1	0.9;
	110	2	0	0	0	0	0	1.051233	87.6660708	20	3	1.1	0.9;
	111	1	16.12	4.3	0	0.49	0	1.04070839	-3.30253448	110	23	1.1	0.9;
	112	1	38.74	6.1	0	1.17	0	1.01480236	-26.9923447	220	4	1.1	0.9;
	113	1	22.13	10.7	0	14.21	0	1.05681626	52.9521337	220	8	1.1	0.9;
	114	2	0	0	0	0	0	1.030832	-11.1014634	20	4	1.1	0.9;
	115	2	0	0	0	0	0	1.019	-4.28696447	20	10	1.1	0.9;
	116	1	0	-0	0	0.73	0	1.01574898	-24.0811381	220	4	1.1	0.9;
	117	1	0	0	0	0.83	0	0.982670561	0.912395737	110	18	1.1	0.9;
	118	1	138.8	136.7	0	8.76	0	1.00581953	41.2645125	380	3	1.1	0.9;
	119	1	137.3	66.4	0.174767	14.17407	0	1.04739436	-4.54535415	220	23	1.1	0.9;
	120	1	67.76	19.18	0	1.47	0	0.992228624	88.7570278	150	1	1.1	0.9;
	121	2	0	0	0	0	0	1.045359	8.16487508	20	14	1.1	0.9;
	122	1	0	-0	0	6.62	0	0.988607594	40.9361765	220	3	1.1	0.9;
	123	1	-0	-0	0	7.22	0	1.02607283	45.2255707	380	1	1.1	0.9;
	124	1	1	0.3	0	0.19	0	1.04640632	-3.23540887	110	19	1.1	0.9;
	125	1	20.9	3	0	5.74	0	0.97954694	40.5863536	154	1	1.1	0.9;
	126	1	0	0	0	0.12	0	1.05426086	-5.23171577	150	9	1.1	0.9;
	127	1	21.52	5.1	0	0.5	0	1.01598636	6.66278462	110	18	1.1	0.9;
	128	1	71.98	28.8	0	11	0	0.992512231	-5.82994131	220	6	1.1	0.9;
	129	1	0	0	0.205132	4.470744	0	0.998890628	23.7428382	380	2	1.1	0.9;
	130	1	363.25	115.39	0	3.95	0	1.03257821	-0.809936095	220	5	1.1	0.9;
	131	1	192.9	73.3	0	20.75	0	1.00912774	30.7633323	380	3	1.1	0.9;
	132	2	0	0	0	0	0	0.996117	29.1439219	11	1	1.1	0.9;
	133	2	0	0	0	0	0	1.042317	11.0585294	20	14	1.1	0.9;
	134	2	0	0	0	0	0	1.044129	-6.05028418	20	4	1.1	0.9;
	135	2	0	0	0	0	0	1.030832	-11.1014634	20	4	1.1	0.9;
	136	2	0	0	0	0	0	1.049674	86.9698868	20	3	1.1	0.9;
	137	1	17.52	6.3	0	0.26	0	1.03727462	0.232510173	110	19	1.1	0.9;
	138	1	33.14	12	0	0.65	0	0.998635588	-2.29170383	110	19	1.1	0.9;
	139	1	40.44	25	0	9.82	0	0.98279688	-10.8231985	150	9	1.1	0.9;
	140	1	193.17	53.37	0	4.58	0	1.00849583	11.9044792	220	5	1.1	0.9;
	141	1	90.7	25.5	0	3.11	0	1.08009255	24.6122001	220	3	1.2	0.8;
	142	1	176.3	-58.9	0	24.77	0	1.01014202	-1.76803224	380	6	1.1	0.9;
	143	1	35.94	22.3	0	0	0	1.04272115	-8.94562211	150	9	1.1	0.9;
	144	2	0	0	0	0	0	1.034631	6.54282727	20	14	1.1	0.9;
	145	2	0	0	0	0	0	1.040587	36.2084637	20	5	1.1	0.9;
	146	2	0	0	0	0	0	1.044313	35.0966066	20	5	1.1	0.9;
	147	2	0	0	0	0	0	1.044313	35.0966066	20	5	1.1	0.9;
	148	1	143.9	123.2	0	72.64	0	1.01403291	31.9704313	380	3	1.1	0.9;
	149	1	-0	-0	0	3.77	0	0.998766426	-24.1687613	220	6	1.1	0.9;
	150	1	-0	8.4	0	15.72	0	1.03576414	-8.68151417	150	9	1.1	0.9;
	151	2	0	0	0	0	0	1.023215	16.3515489	13.8	1	1.1	0.9;
	152	1	51.36	-8.8	0	2.15	0	0.956450778	-29.1292859	220	6	1.1	0.9;
	153	2	0	0	0	0	0	1.027348	17.9316054	20	14	1.1	0.9;
	154	2	0	0	0	0	0	1.05252	75.3435854	20	3	1.1	0.9;
	155	1	-0	-0	0	82.55	0	1.02069413	-7.28697226	380	6	1.1	0.9;
	156	2	0	0	0	0	0	1.034597	17.2149338	20	6	1.1	0.9;
	157	1	322.7	11.9	0	10.28	0	0.998575714	-13.9282081	380	6	1.1	0.9;
	158	1	303.6	79.8	0.019533	1.690467	0	1.03070727	11.6550362	220	5	1.1	0.9;
	159	1	3.8	1.3	0	0.4	0	1.00356231	5.27825496	110	18	1.1	0.9;
	160	1	137	19.5	0	4.9	0	1.00518199	9.89209669	154	1	1.1	0.9;
	161	2	0	0	0	0	0	1.034597	17.2149338	20	6	1.1	0.9;
	162	2	0	0	0	0	0	1.034597	17.2149338	20	6	1.1	0.9;
	163	1	0	0	0	0	0	0.999237584	-12.1038891	150	9	1.1	0.9;
	164	1	61.07	36	0	3.09	0	1.04197347	1.78746871	220	11	1.1	0.9;
	165	2	0	0	0	0	0	1.030832	-11.1014634	20	4	1.1	0.9;
	166	1	-0	0	0	3.24	0	1.06016972	17.3120496	220	3	1.1	0.9;
	167	1	0	0	0	6.520303	0	1.02522085	12.967446	380	5	1.1	0.9;
	168	1	55.7	7.9	0	4.21	0	0.982815675	33.2702361	154	1	1.1	0.9;
	169	1	0	0	0	4.21	0	1.04425097	7.44094841	220	5	1.1	0.9;
	170	1	1.8	0.7	0	0.3	0	0.968953896	-2.46236908	110	19	1.1	0.9;
	171	1	0	-0	0	0.71	0	1.00425712	-11.2027156	150	9	1.1	0.9;
	172	1	2.5	0	0	0.96	0	0.954231642	-7.8948419	110	18	1.1	0.9;
	173	1	0	0	0	0.09	0	1.07144455	-0.755928686	150	9	1.1	0.9;
	174	1	38.94	11	0	0.64	0	0.983011496	-11.2653619	110	1	1.1	0.9;
	175	1	45.15	14.1	0	0.19	0	1.05555775	-4.11094878	110	15	1.1	0.9;
	176	1	0	-0	0	5.75	0	0.994627564	35.80723	220	3	1.1	0.9;
	177	1	0	0	0.019004	4.360996	0	1.03998349	5.38347949	220	11	1.1	0.9;
	178	1	0	-0	0.566322	-0.241138	0	1.06629084	36.9435116	220	5	1.1	0.9;
	179	2	0	0	0	0	0	1.023144	-10.8091692	20	4	1.1	0.9;
	180	1	17.22	5.7	0	1.22	0	0.938902088	-10.1796342	110	21	1.1	0.9;
	181	1	-0	-0	0	0	0	1.02155543	10.4958146	20	14	1.1	0.9;
	182	2	0	0	0	0	0	1.054937	2.9524986	20	20	1.1	0.9;
	183	1	0	0	0	4.3	0	1.00620944	-1.18169899	220	6	1.1	0.9;
	184	1	23.73	12.7	0	0.52	0	1.02021314	11.2278322	220	5	1.1	0.9;
	185	1	121.9	7.4	0	1.34	0	1.01022698	14.7991547	220	3	1.1	0.9;
	186	1	0	-0	0.135375	47.750675	0	1.04319831	-20.8686752	380	10	1.1	0.9;
	187	1	47.35	16.4	0	4.08	0	1.02671938	-13.9061699	110	22	1.1	0.9;
	188	1	-0	0	0	0	0	1.02137983	-23.5826029	20	4	1.1	0.9;
	189	1	-0	-0	0	21.39	0	1.0431562	-17.385998	380	1	1.1	0.9;
	190	1	38.14	12.5	0	6.28	0	1.0069048	28.7982509	150	8	1.1	0.9;
	191	1	54.2	7.8	0	94.9	0	0.97382824	28.9864703	400	1	1.1	0.9;
	192	1	130.6	84.9	0	4.22	0	1.00769895	5.05875739	220	7	1.1	0.9;
	193	1	7.91	2.6	0	0.74	0	0.98295105	-11.9243502	110	12	1.1	0.9;
	194	1	42.1	74.61	0	37.58	0	0.983956797	89.0559162	150	1	1.1	0.9;
	195	1	-75.38	7.8	0	29.9	0	1.0589148	-15.4171773	380	10	1.1	0.9;
	196	2	0	0	0	0	0	1.021915	-11.2958645	20	6	1.1	0.9;
	197	2	0	0	0	0	0	1.005341	-3.25479059	20	4	1.1	0.9;
	198	1	41.05	14.3	0	11.53	0	1.00291581	-1.71566936	220	6	1.1	0.9;
	199	1	-0	-0	0	4.14	0	1.02991643	44.5918946	220	8	1.1	0.9;
	200	1	100.9	49.3	0.020067	4.329933	0	0.982030476	23.9665728	220	13	1.1	0.9;
...
];

%% generator data
%	bus	Pg	Qg	Qmax	Qmin	Vg	mBase	status	Pmax	Pmin	Pc1	Pc2	Qc1min	Qc1max	Qc2min	Qc2max	ramp_agc	ramp_10	ramp_30	ramp_q	apf
mpc.gen = [
	1	76.8681899	15.8067668	40	-10	1.031695	100	1	100	28.22	0	0	0	0	0	0	0	0	0	0	0;
	12	238.58	-4.43875519	210	-50	1.004054	100	1	500	100	0	0	0	0	0	0	0	0	0	0	0;
	18	38.02	10.8214753	30	-10	1.043087	100	1	100	25.35	0	0	0	0	0	0	0	0	0	0	0;
	29	34.78	14.5577598	30	-10	1.033319	100	1	100	23.19	0	0	0	0	0	0	0	0	0	0	0;
	33	25.35	8.50377885	40	-10	1.018631	100	1	100	16.9	0	0	0	0	0	0	0	0	0	0	0;
	39	214.6	55.5702442	210	-50	1.073284	100	1	500	100	0	0	0	0	0	0	0	0	0	0	0;
	42	16.1	-4.1190704	20	-20	0.985213	100	1	100	10.73	0	0	0	0	0	0	0	0	0	0	0;
	45	192.55	1.90781464	160	-40	1.012099	100	1	400	100	0	0	0	0	0	0	0	0	0	0	0;
	51	161	0.801075287	90	-90	1.011416	100	1	400	100	0	0	0	0	0	0	0	0	0	0	0;
	54	37.08	5.2674572	30	-10	1.021005	100	1	100	24.72	0	0	0	0	0	0	0	0	0	0	0;
	62	617.7	178.49332	520	-120	1.058268	100	1	1300	400	0	0	0	0	0	0	0	0	0	0	0;
	63	617.7	178.49332	520	-120	1.058268	100	1	1300	400	0	0	0	0	0	0	0	0	0	0	0;
	66	179.12	12.1457371	160	-40	1.034768	100	1	400	100	0	0	0	0	0	0	0	0	0	0	0;
	68	53.72	11.9307562	40	-10	1.035023	100	1	200	35.81	0	0	0	0	0	0	0	0	0	0	0;
	69	53.72	11.9307562	40	-10	1.035023	100	1	200	35.81	0	0	0	0	0	0	0	0	0	0	0;
	77	24.65	6.99849377	30	-10	1.038344	100	1	100	16.43	0	0	0	0	0	0	0	0	0	0	0;
	78	54.48	10.5295097	30	-10	1.027383	100	1	200	36.32	0	0	0	0	0	0	0	0	0	0	0;
	79	18.13	3.54569961	30	-10	1.016716	100	1	100	12.09	0	0	0	0	0	0	0	0	0	0	0;
	86	152.7	32.8781101	80	-20	1.023881	100	1	400	100	0	0	0	0	0	0	0	0	0	0	0;
	94	17.64	3.04867453	20	-10	1.022611	100	1	100	11.76	0	0	0	0	0	0	0	0	0	0	0;
	96	49.42	5.31980229	40	-10	1.043225	100	1	100	32.95	0	0	0	0	0	0	0	0	0	0	0;
	97	49.42	5.31980229	40	-10	1.043225	100	1	100	32.95	0	0	0	0	0	0	0	0	0	0	0;
	98	49.42	5.31980229	40	-10	1.043225	100	1	100	32.95	0	0	0	0	0	0	0	0	0	0	0;
	99	23.85	7.2052795	40	-10	1.031885	100	1	100	15.9	0	0	0	0	0	0	0	0	0	0	0;
	100	23.85	7.2052795	40	-10	1.031885	100	1	100	15.9	0	0	0	0	0	0	0	0	0	0	0;
	101	49.42	5.31980229	40	-10	1.043225	100	1	100	32.95	0	0	0	0	0	0	0	0	0	0	0;
	102	49.42	5.31980229	40	-10	1.043225	100	1	100	32.95	0	0	0	0	0	0	0	0	0	0	0;
	104	87.95	47.4231777	60	-20	1.052257	100	1	200	58.63	0	0	0	0	0	0	0	0	0	0	0;
	107	68.26	10.3101832	60	-20	1.028153	100	1	200	45.51	0	0	0	0	0	0	0	0	0	0	0;
	110	91.47	8.92652142	60	-20	1.051233	100	1	200	60.98	0	0	0	0	0	0	0	0	0	0	0;
	114	42.35	6.05510805	40	-10	1.030832	100	1	100	28.23	0	0	0	0	0	0	0	0	0	0	0;
	115	22.35	5.32828152	30	-10	1.019	100	1	100	14.9	0	0	0	0	0	0	0	0	0	0	0;
	121	36.03	16.79877	30	-10	1.045359	100	1	100	24.02	0	0	0	0	0	0	0	0	0	0	0;
	132	6.52	0.0533579275	10	-10	0.996117	100	1	100	4.35	0	0	0	0	0	0	0	0	0	0	0;
	133	36.77	13.1645988	30	-10	1.042317	100	1	100	24.51	0	0	0	0	0	0	0	0	0	0	0;
	134	45.54	5.69283938	40	-10	1.044129	100	1	100	30.36	0	0	0	0	0	0	0	0	0	0	0;
	135	42.35	6.05510805	40	-10	1.030832	100	1	100	28.23	0	0	0	0	0	0	0	0	0	0	0;
	136	50.83	3.30450145	60	-20	1.049674	100	1	200	33.89	0	0	0	0	0	0	0	0	0	0	0;
	144	17.8	7.4228966	30	-10	1.034631	100	1	100	11.87	0	0	0	0	0	0	0	0	0	0	0;
	145	612.01	227.465743	520	-120	1.040587	100	1	1300	400	0	0	0	0	0	0	0	0	0	0	0;
	146	612.04	260.134844	520	-120	1.044313	100	1	1300	400	0	0	0	0	0	0	0	0	0	0	0;
	147	612.04	260.134844	520	-120	1.044313	100	1	1300	400	0	0	0	0	0	0	0	0	0	0	0;
	151	204	30.4382792	150	-60	1.023215	100	1	500	100	0	0	0	0	0	0	0	0	0	0	0;
	153	36.13	4.60248426	30	-10	1.027348	100	1	100	24.09	0	0	0	0	0	0	0	0	0	0	0;
	154	766.83	7.67163996	520	-120	1.05252	100	1	1600	500	0	0	0	0	0	0	0	0	0	0	0;
	156	49.34	9.15154211	40	-10	1.034597	100	1	100	32.89	0	0	0	0	0	0	0	0	0	0	0;
	161	49.34	9.15154211	40	-10	1.034597	100	1	100	32.89	0	0	0	0	0	0	0	0	0	0	0;
	162	49.34	9.15154211	40	-10	1.034597	100	1	100	32.89	0	0	0	0	0	0	0	0	0	0	0;
	165	42.35	6.05510805	40	-10	1.030832	100	1	100	28.23	0	0	0	0	0	0	0	0	0	0	0;
	179	95.02	8.24081673	60	-20	1.023144	100	1	200	63.35	0	0	0	0	0	0	0	0	0	0	0;
	182	34.96	12.8874203	30	-10	1.054937	100	1	100	23.31	0	0	0	0	0	0	0	0	0	0	0;
	196	81.07	20.2438239	60	-20	1.021915	100	1	200	54.05	0	0	0	0	0	0	0	0	0	0	0;
	197	245.73	1.48717255	160	-40	1.005341	100	1	500	100	0	0	0	0	0	0	0	0	0	0	0;
	207	27.95	3.74662544	30	-10	1.016461	100	1	100	18.63	0	0	0	0	0	0	0	0	0	0	0;
	220	97.72	39.4503756	60	-20	1.055654	100	1	200	65.15	0	0	0	0	0	0	0	0	0	0	0;
	221	97.72	39.4503756	60	-20	1.055654	100	1	200	65.15	0	0	0	0	0	0	0	0	0	0	0;
	222	97.66	41.9460848	60	-20	1.051105	100	1	200	65.11	0	0	0	0	0	0	0	0	0	0	0;
	223	97.72	39.4503756	60	-20	1.055654	100	1	200	65.15	0	0	0	0	0	0	0	0	0	0	0;
	224	97.66	41.9460848	60	-20	1.051105	100	1	200	65.11	0	0	0	0	0	0	0	0	0	0	0;
	225	97.66	41.9460848	60	-20	1.051105	100	1	200	65.11	0	0	0	0	0	0	0	0	0	0	0;
	229	21.03	9.7970796	30	-10	1.034441	100	1	100	14.02	0	0	0	0	0	0	0	0	0	0	0;
	241	601.87	164.083017	520	-120	1.037622	100	1	1300	400	0	0	0	0	0	0	0	0	0	0	0;
	243	32.43	18.2141515	30	-10	1.053647	100	1	100	21.62	0	0	0	0	0	0	0	0	0	0	0;
	248	26.38	8.86773662	30	-10	1.026279	100	1	100	17.59	0	0	0	0	0	0	0	0	0	0	0;
	250	192.55	1.90781464	160	-40	1.012099	100	1	400	100	0	0	0	0	0	0	0	0	0	0	0;
	258	8.2	-2.56185016	10	-10	0.955439	100	1	100	5.47	0	0	0	0	0	0	0	0	0	0	0;
	259	38.51	6.71937233	30	-10	1.03425	100	1	100	25.67	0	0	0	0	0	0	0	0	0	0	0;
	266	28.48	6.82465277	30	-10	1.005915	100	1	100	18.99	0	0	0	0	0	0	0	0	0	0	0;
	270	18.4	-1.00982297	20	-20	1.003342	100	1	100	12.27	0	0	0	0	0	0	0	0	0	0	0;
	271	626.63	192.5338	520	-120	1.053159	100	1	1300	400	0	0	0	0	0	0	0	0	0	0	0;
	273	626.63	186.84616	520	-120	1.051456	100	1	1300	400	0	0	0	0	0	0	0	0	0	0	0;
	274	626.64	185.313116	520	-120	1.051088	100	1	1300	400	0	0	0	0	0	0	0	0	0	0	0;
	275	626.64	185.313116	520	-120	1.051088	100	1	1300	400	0	0	0	0	0	0	0	0	0	0	0;
	276	626.64	183.793643	520	-120	1.050379	100	1	1300	400	0	0	0	0	0	0	0	0	0	0	0;
	278	627	28.9053886	320	-190	0.960771	100	1	1300	400	0	0	0	0	0	0	0	0	0	0	0;
	283	8	0.732883638	10	-10	1.000621	100	1	100	5.33	0	0	0	0	0	0	0	0	0	0	0;
	289	36.9	12.2447727	30	-10	1.040289	100	1	100	24.6	0	0	0	0	0	0	0	0	0	0	0;
	294	92.8	3.17309781	50	-50	0.999187	100	1	200	61.87	0	0	0	0	0	0	0	0	0	0	0;
	296	21	0.700934849	10	-10	0.989117	100	1	100	14	0	0	0	0	0	0	0	0	0	0	0;
	299	158.9	35.3381853	100	-30	0.993468	100	1	400	100	0	0	0	0	0	0	0	0	0	0	0;
	304	39.98	8.67445289	30	-10	1.037997	100	1	100	26.65	0	0	0	0	0	0	0	0	0	0	0;
	305	27.73	1.88216485	30	-10	1.030407	100	1	100	18.49	0	0	0	0	0	0	0	0	0	0	0;
	306	27.73	1.88216485	30	-10	1.030407	100	1	100	18.49	0	0	0	0	0	0	0	0	0	0	0;
	307	17.66	6.93746422	30	-10	1.049321	100	1	100	11.77	0	0	0	0	0	0	0	0	0	0	0;
	308	17.66	6.93746422	30	-10	1.049321	100	1	100	11.77	0	0	0	0	0	0	0	0	0	0	0;
	309	32.08	3.65650276	30	-10	1.05655	100	1	100	21.39	0	0	0	0	0	0	0	0	0	0	0;
	310	32.08	3.65650276	30	-10	1.05655	100	1	100	21.39	0	0	0	0	0	0	0	0	0	0	0;
	311	32.08	3.65650276	30	-10	1.05655	100	1	100	21.39	0	0	0	0	0	0	0	0	0	0	0;
	312	32.08	3.65650276	30	-10	1.05655	100	1	100	21.39	0	0	0	0	0	0	0	0	0	0	0;
	315	2.06	0.622780051	10	-10	1.021202	100	1	100	1.37	0	0	0	0	0	0	0	0	0	0	0;
	323	419.13	106.129861	520	-120	1.016993	100	1	900	200	0	0	0	0	0	0	0	0	0	0	0;
	324	5	1.88800842	10	-10	1.024179	100	1	100	3.33	0	0	0	0	0	0	0	0	0	0	0;
	325	4.8	-0.120229267	10	-10	0.996355	100	1	100	3.2	0	0	0	0	0	0	0	0	0	0	0;
	328	54.54	27.6997524	40	-10	1.023168	100	1	200	36.36	0	0	0	0	0	0	0	0	0	0	0;
	331	27.62	3.85657005	30	-20	1.006233	100	1	100	18.41	0	0	0	0	0	0	0	0	0	0	0;
	332	2	-0.00295404489	10	-10	0.996766	100	1	100	1.33	0	0	0	0	0	0	0	0	0	0	0;
	336	16.08	0.0391283104	10	-10	1.010862	100	1	100	10.72	0	0	0	0	0	0	0	0	0	0	0;
	338	16.08	-0.172734187	10	-10	1.00038	100	1	100	10.72	0	0	0	0	0	0	0	0	0	0	0;
	345	333.1	57.0548425	210	-50	1.030395	100	1	700	200	0	0	0	0	0	0	0	0	0	0	0;
	346	333.1	57.0548425	210	-50	1.030395	100	1	700	200	0	0	0	0	0	0	0	0	0	0	0;
	351	167.59	38.8056169	210	-50	1.024484	100	1	400	100	0	0	0	0	0	0	0	0	0	0	0;
	354	36.42	7.47831612	30	-10	1.029166	100	1	100	24.28	0	0	0	0	0	0	0	0	0	0	0;
	358	165.24	106.902869	210	-50	1.050725	100	1	400	100	0	0	0	0	0	0	0	0	0	0	0;
	360	84.12	16.9193792	60	-20	1.028641	100	1	200	56.08	0	0	0	0	0	0	0	0	0	0	0;
	361	84.12	16.9193792	60	-20	1.028641	100	1	200	56.08	0	0	0	0	0	0	0	0	0	0	0;
	362	84.12	16.9193792	60	-20	1.028641	100	1	200	56.08	0	0	0	0	0	0	0	0	0	0	0;
	363	84.12	16.9193792	60	-20	1.028641	100	1	200	56.08	0	0	0	0	0	0	0	0	0	0	0;
	364	5.25	0.211495317	10	-10	1.00564	100	1	100	3.5	0	0	0	0	0	0	0	0	0	0	0;
	365	95.2	35.9114273	110	-30	0.997585	100	1	200	63.47	0	0	0	0	0	0	0	0	0	0	0;
	368	84.12	16.9193792	60	-20	1.028641	100	1	200	56.08	0	0	0	0	0	0	0	0	0	0	0;
	369	84.12	16.9193792	60	-20	1.028641	100	1	200	56.08	0	0	0	0	0	0	0	0	0	0	0;
	382	102.03	9.45181885	60	-20	0.990596	100	1	300	68.02	0	0	0	0	0	0	0	0	0	0	0;
	383	102.24	29.2099366	60	-20	1.012482	100	1	300	68.16	0	0	0	0	0	0	0	0	0	0	0;
	392	1.03	0.0746401345	10	-10	1.030636	100	1	100	0.69	0	0	0	0	0	0	0	0	0	0	0;
	394	37.9	9.33252547	30	-10	1.0326	100	1	100	25.27	0	0	0	0	0	0	0	0	0	0	0;
	395	37.23	4.40312919	30	-10	1.028283	100	1	100	24.82	0	0	0	0	0	0	0	0	0	0	0;
	396	85.28	19.545674	60	-20	1.029542	100	1	200	56.85	0	0	0	0	0	0	0	0	0	0	0;
	400	94.5	8.91770782	50	-40	0.979015	100	1	200	63	0	0	0	0	0	0	0	0	0	0	0;
	405	33.64	6.77358876	30	-10	1.00773	100	1	100	22.43	0	0	0	0	0	0	0	0	0	0	0;
	406	33.64	6.77358876	30	-10	1.00773	100	1	100	22.43	0	0	0	0	0	0	0	0	0	0	0;
	408	34.92	9.61157771	30	-10	1.043492	100	1	100	23.28	0	0	0	0	0	0	0	0	0	0	0;
	423	0.99	-0.0532335986	10	-10	1.015919	100	1	100	0.66	0	0	0	0	0	0	0	0	0	0	0;
	432	4.5	0.464412657	10	-10	1.016602	100	1	100	3	0	0	0	0	0	0	0	0	0	0	0;
	433	30.04	8.00298914	30	-10	1.011489	100	1	100	20.03	0	0	0	0	0	0	0	0	0	0	0;
	438	18.13	3.54569961	30	-10	1.016716	100	1	100	12.09	0	0	0	0	0	0	0	0	0	0	0;
	442	31.35	11.1806309	30	-10	1.043357	100	1	100	20.9	0	0	0	0	0	0	0	0	0	0	0;
	448	25.22	6.24647078	20	-10	1.038795	100	1	100	16.81	0	0	0	0	0	0	0	0	0	0	0;
	454	8.35	-1.92800943	10	-10	0.973833	100	1	100	5.57	0	0	0	0	0	0	0	0	0	0	0;
	458	31.28	-0.928255675	30	-10	1.009892	100	1	100	20.85	0	0	0	0	0	0	0	0	0	0	0;
	463	-19.98	295.416803	100000	-100000	1.126642	100	1	100	-26.64	0	0	0	0	0	0	0	0	0	0	0;
	470	74.8	36.0787522	60	-20	1.046905	100	1	200	49.87	0	0	0	0	0	0	0	0	0	0	0;
	476	214.05	80.1863478	210	-50	1.029484	100	1	500	100	0	0	0	0	0	0	0	0	0	0	0;
	477	38.02	10.8214753	30	-10	1.043087	100	1	100	25.35	0	0	0	0	0	0	0	0	0	0	0;
	480	89.2	18.2439606	60	-20	1.033425	100	1	200	59.47	0	0	0	0	0	0	0	0	0	0	0;
	481	89.2	18.2439606	60	-20	1.033425	100	1	200	59.47	0	0	0	0	0	0	0	0	0	0	0;
	482	89.2	18.2439606	60	-20	1.033425	100	1	200	59.47	0	0	0	0	0	0	0	0	0	0	0;
	483	89.2	18.2439606	60	-20	1.033425	100	1	200	59.47	0	0	0	0	0	0	0	0	0	0	0;
	485	325.03	138.973426	210	-50	1.059619	100	1	700	200	0	0	0	0	0	0	0	0	0	0	0;
	492	273.28	113.299281	210	-50	1.041985	100	1	600	100	0	0	0	0	0	0	0	0	0	0	0;
	496	64.28	30.2493443	60	-20	1.00876	100	1	200	42.85	0	0	0	0	0	0	0	0	0	0	0;
	508	857.64	269.117285	520	-120	1.044776	100	1	1800	500	0	0	0	0	0	0	0	0	0	0	0;
	509	857.69	275.679033	520	-120	1.044388	100	1	1800	500	0	0	0	0	0	0	0	0	0	0	0;
	510	857.66	264.03108	520	-120	1.044096	100	1	1800	500	0	0	0	0	0	0	0	0	0	0	0;
	514	857.64	266.531828	520	-120	1.044511	100	1	1800	500	0	0	0	0	0	0	0	0	0	0	0;
	516	32.57	7.09969814	30	-10	1.041748	100	1	100	21.71	0	0	0	0	0	0	0	0	0	0	0;
	528	23.66	2.40464983	30	-10	1.020703	100	1	100	15.77	0	0	0	0	0	0	0	0	0	0	0;
	531	38.79	5.82857305	30	-10	1.035838	100	1	100	25.86	0	0	0	0	0	0	0	0	0	0	0;
	532	258.95	66.4214907	210	-50	1.036699	100	1	600	100	0	0	0	0	0	0	0	0	0	0	0;
	533	164.92	6.19807024	160	-40	1.016377	100	1	400	100	0	0	0	0	0	0	0	0	0	0	0;
	539	152	33.2923416	90	-40	0.993492	100	1	400	100	0	0	0	0	0	0	0	0	0	0	0;
	552	30.6	-1.4654593	20	-20	0.99834	100	1	100	20.4	0	0	0	0	0	0	0	0	0	0	0;
	559	51.5	-7.53880962	30	-30	0.954584	100	1	200	34.33	0	0	0	0	0	0	0	0	0	0	0;
	564	21.77	6.3208578	30	-10	1.024499	100	1	100	14.51	0	0	0	0	0	0	0	0	0	0	0;
	572	7	0.882810512	10	-10	1.004314	100	1	100	4.67	0	0	0	0	0	0	0	0	0	0	0;
	575	18.09	1.62401387	30	-10	1.016739	100	1	100	12.06	0	0	0	0	0	0	0	0	0	0	0;
	576	18.09	1.62401387	30	-10	1.016739	100	1	100	12.06	0	0	0	0	0	0	0	0	0	0	0;
	577	18.09	1.62401387	30	-10	1.016739	100	1	100	12.06	0	0	0	0	0	0	0	0	0	0	0;
	581	18.09	1.62401387	30	-10	1.016739	100	1	100	12.06	0	0	0	0	0	0	0	0	0	0	0;
	585	72.61	28.5123589	60	-20	1.041629	100	1	200	48.41	0	0	0	0	0	0	0	0	0	0	0;
	589	13.38	0.701795708	10	-10	1.00755	100	1	100	8.92	0	0	0	0	0	0	0	0	0	0	0;
	610	31.95	15.2382274	30	-10	1.019723	100	1	100	21.3	0	0	0	0	0	0	0	0	0	0	0;
	614	34.81	16.0171943	40	-10	1.031902	100	1	100	23.21	0	0	0	0	0	0	0	0	0	0	0;
	615	34.81	16.0171943	40	-10	1.031902	100	1	100	23.21	0	0	0	0	0	0	0	0	0	0	0;
	619	42.5	5.51689661	40	-10	1.031502	100	1	100	28.33	0	0	0	0	0	0	0	0	0	0	0;
	621	5.8	-0.784376713	10	-10	1.003942	100	1	100	3.87	0	0	0	0	0	0	0	0	0	0	0;
	623	36.03	16.79877	30	-10	1.045359	100	1	100	24.02	0	0	0	0	0	0	0	0	0	0	0;
	626	43.29	18.665139	60	-20	1.035771	100	1	100	28.86	0	0	0	0	0	0	0	0	0	0	0;
	635	0.13	-0.103011114	10	-10	1.023511	100	1	100	0.09	0	0	0	0	0	0	0	0	0	0	0;
	637	25.22	6.7751074	30	-10	1.04616	100	1	100	16.81	0	0	0	0	0	0	0	0	0	0	0;
	646	333.1	57.0548425	210	-50	1.030395	100	1	700	200	0	0	0	0	0	0	0	0	0	0	0;
	648	322.05	15.0981378	210	-50	1.007781	100	1	700	200	0	0	0	0	0	0	0	0	0	0	0;
	649	333.1	57.0548425	210	-50	1.030395	100	1	700	200	0	0	0	0	0	0	0	0	0	0	0;
	651	188.27	-21.968849	210	-50	1.028351	100	1	400	100	0	0	0	0	0	0	0	0	0	0	0;
	652	188.27	-21.968849	210	-50	1.028351	100	1	400	100	0	0	0	0	0	0	0	0	0	0	0;
	654	92.4	2.72002782	60	-20	1.014507	100	1	200	61.6	0	0	0	0	0	0	0	0	0	0	0;
	660	33.21	5.47364281	30	-10	1.022689	100	1	100	22.14	0	0	0	0	0	0	0	0	0	0	0;
	666	31.3	-0.820887155	30	-10	1.018739	100	1	100	20.87	0	0	0	0	0	0	0	0	0	0	0;
	671	25.2	-0.3182549	20	-10	0.999061	100	1	100	16.8	0	0	0	0	0	0	0	0	0	0	0;
	676	274.65	30.6579575	160	-40	1.018066	100	1	600	100	0	0	0	0	0	0	0	0	0	0	0;
	681	84.68	6.20911809	60	-20	1.00657	100	1	200	56.45	0	0	0	0	0	0	0	0	0	0	0;
	684	68.89	19.0469338	60	-20	1.035618	100	1	200	45.93	0	0	0	0	0	0	0	0	0	0	0;
	693	209.96	78.6750205	160	-40	1.038999	100	1	500	100	0	0	0	0	0	0	0	0	0	0	0;
	695	8.4	-0.841074714	10	-10	1.010516	100	1	100	5.6	0	0	0	0	0	0	0	0	0	0	0;
	698	26.72	4.52115043	20	-10	1.018527	100	1	100	17.81	0	0	0	0	0	0	0	0	0	0	0;
	709	626.68	231.593122	520	-120	1.051727	100	1	1300	400	0	0	0	0	0	0	0	0	0	0	0;
	715	23.9	3.54188707	30	-10	1.007844	100	1	100	15.93	0	0	0	0	0	0	0	0	0	0	0;
	717	23.12	5.5760899	10	0	1.027572	100	1	100	15.41	0	0	0	0	0	0	0	0	0	0	0;
	721	74.35	10.2165828	60	-20	0.992442	100	1	200	49.57	0	0	0	0	0	0	0	0	0	0	0;
	724	35.5	10.6223599	30	-10	1.045213	100	1	100	23.67	0	0	0	0	0	0	0	0	0	0	0;
	730	98.46	12.3441622	60	-20	1.01458	100	1	200	65.64	0	0	0	0	0	0	0	0	0	0	0;
	731	98.46	12.3441622	60	-20	1.01458	100	1	200	65.64	0	0	0	0	0	0	0	0	0	0	0;
	732	98.46	12.3441622	60	-20	1.01458	100	1	200	65.64	0	0	0	0	0	0	0	0	0	0	0;
	734	98.46	12.3441622	60	-20	1.01458	100	1	200	65.64	0	0	0	0	0	0	0	0	0	0	0;
	746	16	0.189230076	10	-10	0.994194	100	1	100	10.67	0	0	0	0	0	0	0	0	0	0	0;
	749	22.58	7.41695464	30	-10	1.009791	100	1	100	15.05	0	0	0	0	0	0	0	0	0	0	0;
	750	22.58	7.41695464	30	-10	1.009791	100	1	100	15.05	0	0	0	0	0	0	0	0	0	0	0;
	751	22.58	7.41695464	30	-10	1.009791	100	1	100	15.05	0	0	0	0	0	0	0	0	0	0	0;
	753	20.64	7.2310247	30	-10	1.018866	100	1	100	13.76	0	0	0	0	0	0	0	0	0	0	0;
	754	64.65	13.1000773	60	-20	1.009683	100	1	200	43.1	0	0	0	0	0	0	0	0	0	0	0;
	765	78.37	30.3072146	60	-20	1.032985	100	1	200	52.25	0	0	0	0	0	0	0	0	0	0	0;
...
];

%% branch data
%	fbus	tbus	r	x	b	rateA	rateB	rateC	ratio	angle	status	angmin	angmax	Pf	Qf	Pt	Qt
mpc.branch = [
	7519	4482	0.0006	0.00616	0	0	0	0	0	0	1	-360	360	-48.3043	20.7873	48.3196	-20.6305;
	7519	11823	0.0005	0.0074	0	0	0	0	0	0	1	-360	360	48.3043	-1.4352	-48.2936	1.5943;
	3073	4516	0.00107	0.00626	0	0	0	0	0	0	1	-360	360	-182.4029	-2.7030	182.7453	4.7066;
	3073	4706	0.000841	0.0055	0	0	0	0	0	0	1	-360	360	182.4029	4.0858	-182.1336	-2.3250;
	5157	1032	0.00143	0.01563	0	0	0	0	0	0	1	-360	360	861.5244	7.8073	-851.9807	96.5060;
	5157	6653	0.00146	0.01692	0	0	0	0	0	0	1	-360	360	-861.5244	39.6955	871.2882	73.4576;
	628	7896	7e-05	0.00057	0	0	0	0	0	0	1	-360	360	274.7316	98.1311	-274.6790	-97.7029;
	628	6592	6e-05	0.00056	0	0	0	0	0	0	1	-360	360	-274.7316	-96.7261	274.7765	97.1454;
	11792	10888	0.003349	0.01656	0	0	0	0	0	0	1	-360	360	2.7956	-4.3511	-2.7947	4.3554;
	11792	4609	0.003409	0.016211	0	0	0	0	0	0	1	-360	360	-2.7956	7.2303	2.7975	-7.2209;
	6573	10888	0.003479	0.01586	0	0	0	0	0	0	1	-360	360	2.8145	-4.0984	-2.8137	4.1022;
	6573	4609	0.003099	0.017969	0	0	0	0	0	0	1	-360	360	-2.8145	6.8952	2.8162	-6.8856;
	782	13300	0.00127	0.01842	0	0	0	0	0	0	1	-360	360	-539.6233	87.5221	543.4573	-31.9140;
	782	1186	0.00126	0.01847	0	0	0	0	0	0	1	-360	360	539.6233	-40.5988	-535.8960	95.2361;
	11715	924	0.0013	0.01808	0	0	0	0	0	0	1	-360	360	-622.7039	92.6391	627.9552	-19.6058;
	11715	12182	0.00131	0.01765	0	0	0	0	0	0	1	-360	360	622.7039	-44.8165	-617.5000	114.9304;
	10257	2582	0.00065	0.01311	0	0	0	0	0	0	1	-360	360	459.0684	707.8472	-455.1841	-629.5030;
	10257	9363	0.00067	0.00974	0	0	0	0	0	0	1	-360	360	-459.0684	-118.9549	460.3335	137.3452;
	7595	11501	0.00236	0.01418	0	0	0	0	0	0	1	-360	360	164.5646	9.5002	-163.9612	-5.8742;
	7595	11390	0.002169	0.015909	0	0	0	0	0	0	1	-360	360	-164.5646	-6.4824	165.1183	10.5432;
	6873	1806	0.00027	0.00254	0	0	0	0	0	0	1	-360	360	-41.3162	140.9931	41.3700	-140.4874;
	6873	11151	0.00027	0.00259	0	0	0	0	0	0	1	-360	360	41.3162	-131.5939	-41.2688	132.0484;
	11949	1806	0.00033	0.00302	0	0	0	0	0	0	1	-360	360	342.3026	-120.0212	-341.8976	123.7277;
	11949	1269	0.00029	0.00312	0	0	0	0	0	0	1	-360	360	-342.3026	130.1952	342.6654	-126.2920;
	2623	3359	0.000289	0.00137	0	0	0	0	0	0	1	-360	360	-22.5520	-92.1764	22.5754	92.2875;
	2623	11159	0.000219	0.00263	0	0	0	0	0	0	1	-360	360	22.5520	120.1736	-22.5225	-119.8194;
	3020	3359	0.000289	0.001341	0	0	0	0	0	0	1	-360	360	12.3961	-39.8119	-12.3916	39.8328;
	3020	12995	0.000229	0.00257	0	0	0	0	0	0	1	-360	360	-12.3961	68.4069	12.4061	-68.2952;
	9670	3359	0.000841	0.00689	0	0	0	0	0	0	1	-360	360	47.7261	-33.1055	-47.7005	33.3151;
	9670	2360	0.000979	0.00586	0	0	0	0	0	0	1	-360	360	-47.7261	34.2588	47.7566	-34.0765;
	8390	3359	0.00014	0.0012	0	0	0	0	0	0	1	-360	360	19.4091	91.8847	-19.3980	-91.7898;
	8390	11515	0.000211	0.001539	0	0	0	0	0	0	1	-360	360	-19.4091	-91.4833	19.4257	91.6040;
	12630	3359	0.000401	0.004901	0	0	0	0	0	0	1	-360	360	7.0896	39.7993	-7.0838	-39.7275;
	12630	11515	0.000219	0.00151	0	0	0	0	0	0	1	-360	360	-7.0896	-38.8165	7.0927	38.8376;
	3340	3359	0.000729	0.004539	0	0	0	0	0	0	1	-360	360	-90.4467	-12.9318	90.5016	13.2731;
	3340	3953	0.00062	0.00482	0	0	0	0	0	0	1	-360	360	90.4467	13.7756	-90.4000	-13.4123;
	7444	8848	0.00052	0.00407	0	0	0	0	0	0	1	-360	360	-39.6717	146.0788	39.7934	-145.1262;
	7444	5026	0.00034	0.00502	0	0	0	0	0	0	1	-360	360	39.6717	-134.7719	-39.6031	135.7840;
	11055	8848	0.00065	0.00698	0	0	0	0	0	0	1	-360	360	348.1799	153.4881	-347.2319	-143.3081;
	11055	13067	0.00059	0.00806	0	0	0	0	0	0	1	-360	360	-348.1799	-133.0971	349.0056	144.3778;
	9857	13125	0.00063	0.00464	0	0	0	0	0	0	1	-360	360	-41.2109	15.4556	41.2233	-15.3639;
	9857	12598	0.000599	0.005099	0	0	0	0	0	0	1	-360	360	41.2109	-14.2010	-41.1992	14.2998;
	7256	7011	0.00064	0.00307	0	0	0	0	0	0	1	-360	360	-124.5845	53.7701	124.6954	-53.2382;
	7256	11232	0.000659	0.003	0	0	0	0	0	0	1	-360	360	124.5845	-52.7180	-124.4711	53.2346;
	12732	9895	0.00053	0.00528	0	0	0	0	0	0	1	-360	360	-77.1163	-117.2578	77.2177	118.2677;
	12732	4416	0.00056	0.0053	0	0	0	0	0	0	1	-360	360	77.1163	130.9535	-76.9907	-129.7648;
	4494	7011	0.0018	0.007919	0	0	0	0	0	0	1	-360	360	-99.4865	42.4053	99.6844	-41.5349;
	4494	10481	0.001651	0.00862	0	0	0	0	0	0	1	-360	360	99.4865	-39.5854	-99.3086	40.5141;
	7913	9895	0.00045	0.00545	0	0	0	0	0	0	1	-360	360	287.0459	91.6453	-286.6588	-86.9565;
	7913	1269	0.00052	0.00476	0	0	0	0	0	0	1	-360	360	-287.0459	-79.4141	287.4830	83.4150;
	3258	10043	0.01286	0.037421	0	0	0	0	0	0	1	-360	360	-0.7358	3.0215	0.7370	-3.0178;
	3258	8238	0.032397	0.123	0	0	0	0	0	0	1	-360	360	0.7358	-2.2904	-0.7339	2.2977;
	697	10043	0.032851	0.069727	0	0	0	0	0	0	1	-360	360	-6.4407	3.6736	6.4592	-3.6343;
	697	11841	0.059942	0.112802	0	0	0	0	0	0	1	-360	360	6.4407	-2.7292	-6.4105	2.7859;
	11629	10942	0.00011	0.00109	0	0	0	0	0	0	1	-360	360	-61.4630	-15.8371	61.4670	15.8772;
	11629	13171	0.00011	0.00107	0	0	0	0	0	0	1	-360	360	61.4630	18.8382	-61.4588	-18.7978;
	9089	11260	0.000461	0.00395	0	0	0	0	0	0	1	-360	360	218.2175	-105.8339	-217.9587	108.0515;
	9089	7609	0.000599	0.003789	0	0	0	0	0	0	1	-360	360	-218.2175	106.6721	218.5548	-104.5384;
	13119	3581	0.00173	0.01542	0	0	0	0	0	0	1	-360	360	-30.5376	155.2837	30.8891	-152.1500;
	13119	6381	0.00166	0.02083	0	0	0	0	0	0	1	-360	360	30.5376	-106.1963	-30.3731	108.2600;
	5075	13106	0.006314	0.018488	0	0	0	0	0	0	1	-360	360	9.6277	-2.3640	-9.6217	2.3816;
	5075	9503	0.015727	0.037669	0	0	0	0	0	0	1	-360	360	-9.6277	2.6426	9.6429	-2.6062;
	11048	10312	0.00374	0.02095	0	0	0	0	0	0	1	-360	360	282.2490	-26.2518	-279.5388	41.4329;
	11048	3185	0.00511	0.019461	0	0	0	0	0	0	1	-360	360	-282.2490	29.6893	285.9607	-15.5535;
	1538	4109	0.011281	0.050771	0	0	0	0	0	0	1	-360	360	142.6388	-54.5417	-140.0782	66.0656;
	1538	3721	0.0115	0.049719	0	0	0	0	0	0	1	-360	360	-142.6388	63.5009	145.3674	-51.7041;
	5803	4109	0.011719	0.048659	0	0	0	0	0	0	1	-360	360	147.1446	-59.3638	-144.2728	71.2877;
	5803	3721	0.01193	0.047599	0	0	0	0	0	0	1	-360	360	-147.1446	68.6614	150.2063	-56.4456;
	189	4268	0.00064	0.00715	0	0	0	0	0	0	1	-360	360	-238.2188	59.9966	238.5738	-56.0313;
	189	11488	0.00089	0.00712	0	0	0	0	0	0	1	-360	360	238.2188	-36.7205	-237.7437	40.5218;
	7384	1009	0.00048	0.00555	0	0	0	0	0	0	1	-360	360	-28.2988	-0.9006	28.3023	0.9410;
	7384	11547	0.00047	0.00566	0	0	0	0	0	0	1	-360	360	28.2988	14.1253	-28.2946	-14.0739;
	11070	1009	0.00046	0.00524	0	0	0	0	0	0	1	-360	360	-30.6698	-1.1159	30.6737	1.1608;
	11070	11547	0.00052	0.00514	0	0	0	0	0	0	1	-360	360	30.6698	14.7697	-30.6643	-14.7156;
	2061	6603	0.00438	0.010686	0	0	0	0	0	0	1	-360	360	-41.1030	-7.6670	41.1831	7.8624;
	2061	9733	0.031347	0.062653	0	0	0	0	0	0	1	-360	360	41.1030	8.0207	-40.5279	-6.8714;
	9502	7241	0.00029	0.00298	0	0	0	0	0	0	1	-360	360	-513.7257	50.0838	514.4406	-42.7375;
	9502	8865	0.0003	0.00291	0	0	0	0	0	0	1	-360	360	513.7257	-41.2218	-512.9884	48.3737;
	12336	13321	0.00155	0.01529	0	0	0	0	0	0	1	-360	360	-112.8715	178.9296	113.4408	-173.3136;
	12336	494	0.00148	0.0152	0	0	0	0	0	0	1	-360	360	112.8715	-127.3620	-112.5197	130.9747;
	13540	11971	0.000169	0.00096	0	0	0	0	0	0	1	-360	360	-98.7577	-47.4585	98.7789	47.5789;
	13540	330	0.000182	0.000942	0	0	0	0	0	0	1	-360	360	98.7577	47.9849	-98.7347	-47.8663;
	8250	622	0.00016	0.00184	0	0	0	0	0	0	1	-360	360	-881.0384	-271.5541	882.3507	286.6452;
	8250	8646	0.00022	0.00287	0	0	0	0	0	0	1	-360	360	881.0384	278.3214	-879.2261	-254.6796;
	5656	9506	0.00015	0.00187	0	0	0	0	0	0	1	-360	360	-896.3306	-368.5752	897.6735	385.3164;
	5656	7003	0.00022	0.00266	0	0	0	0	0	0	1	-360	360	896.3306	375.2792	-894.3506	-351.3391;
	8767	13151	0.00138	0.0174	0	0	0	0	0	0	1	-360	360	-36.6319	39.5538	36.6652	-39.1338;
	8767	256	0.00272	0.0288	0	0	0	0	0	0	1	-360	360	36.6319	39.6985	-36.5660	-39.0006;
	11952	7565	0.00065	0.01024	0	0	0	0	0	0	1	-360	360	897.7812	109.1092	-892.8564	-31.5238;
	11952	8750	0.00073	0.01004	0	0	0	0	0	0	1	-360	360	-897.7812	-83.2980	903.2786	158.9061;
	13220	7565	0.00075	0.00983	0	0	0	0	0	0	1	-360	360	936.2429	105.4325	-930.0800	-24.6578;
	13220	8750	0.00076	0.00963	0	0	0	0	0	0	1	-360	360	-936.2429	-77.1836	942.4517	155.8550;
	10465	10831	0.00042	0.02666	0	0	0	0	0	0	1	-360	360	0.0000	0.0000	0.0000	0.0000;
	8079	10358	0.00029	0.0026	0	0	0	0	0	0	1	-360	360	552.3948	51.4379	-551.5634	-43.9837;
	8079	8404	0.00022	0.00303	0	0	0	0	0	0	1	-360	360	-552.3948	-40.2407	553.0234	48.8987;
	7197	5524	0.001	0.006159	0	0	0	0	0	0	1	-360	360	192.2767	29.5056	-191.9196	-27.3058;
	7197	11931	0.00113	0.00657	0	0	0	0	0	0	1	-360	360	-192.2767	-28.0542	192.6794	30.3956;
	1721	12153	0.0013	0.01277	0	0	0	0	0	0	1	-360	360	236.0698	101.1397	-235.4232	-94.7883;
	1721	10744	0.00163	0.01808	0	0	0	0	0	0	1	-360	360	-236.0698	-54.4867	236.7913	62.4893;
	8400	850	0.00047	0.00406	0	0	0	0	0	0	1	-360	360	233.6961	90.2109	-233.4782	-88.3287;
	8400	8575	0.00235	0.02343	0	0	0	0	0	0	1	-360	360	-233.6961	-46.5162	234.6818	56.3439;
	9020	2201	0.00036	0.00445	0	0	0	0	0	0	1	-360	360	458.4603	201.4631	-457.6544	-191.5017;
	9020	2350	0.00017	0.0025	0	0	0	0	0	0	1	-360	360	-458.4603	-190.9550	458.8345	196.4593;
	6435	2201	0.00036	0.00436	0	0	0	0	0	0	1	-360	360	128.8791	190.3828	-128.7087	-188.3196;
	6435	3448	0.00017	0.00255	0	0	0	0	0	0	1	-360	360	-128.8791	-179.6939	128.9535	180.8103;
	3223	4642	0.00096	0.00995	0	0	0	0	0	0	1	-360	360	275.5260	18.7882	-274.8870	-12.1660;
	3223	9919	0.00152	0.01949	0	0	0	0	0	0	1	-360	360	-275.5260	15.4525	276.5361	-2.5004;
	7755	4642	0.00094	0.01014	0	0	0	0	0	0	1	-360	360	270.4544	19.2529	-269.8513	-12.7475;
	7755	9919	0.00149	0.01986	0	0	0	0	0	0	1	-360	360	-270.4544	14.2646	271.4081	-1.5522;
	4129	4642	0.00107	0.01243	0	0	0	0	0	0	1	-360	360	145.1851	38.3039	-144.9753	-35.8668;
	4129	3715	0.00102	0.01034	0	0	0	0	0	0	1	-360	360	-145.1851	-9.8669	145.3729	11.7711;
	5471	7106	0.0047	0.02061	0	0	0	0	0	0	1	-360	360	-118.9141	-56.4181	119.6682	59.7248;
	5471	5434	0.00739	0.040531	0	0	0	0	0	0	1	-360	360	118.9141	61.4605	-117.6878	-54.7346;
	8834	12770	0.00049	0.00611	0	0	0	0	0	0	1	-360	360	-232.0093	-126.5815	232.2593	129.6988;
	8834	10744	0.00035	0.00431	0	0	0	0	0	0	1	-360	360	232.0093	145.7895	-231.8173	-143.4258;
	7831	1467	0.00261	0.01344	0	0	0	0	0	0	1	-360	360	-25.1241	-52.9942	25.2090	53.4311;
	7831	5173	0.003521	0.019591	0	0	0	0	0	0	1	-360	360	25.1241	56.1258	-24.9983	-55.4256;
	10033	5005	0.0025	0.01419	0	0	0	0	0	0	1	-360	360	-11.7480	-79.2995	11.9010	80.1677;
	10033	7387	0.00287	0.0237	0	0	0	0	0	0	1	-360	360	11.7480	83.1542	-11.5553	-81.5628;
	9789	9848	0.00088	0.00956	0	0	0	0	0	0	1	-360	360	584.0447	-179.9909	-581.1789	211.1244;
	9789	430	0.00095	0.00877	0	0	0	0	0	0	1	-360	360	-584.0447	204.1102	587.2153	-174.8410;
	2916	1094	0.00332	0.020651	0	0	0	0	0	0	1	-360	360	-96.2673	18.4561	96.5696	-16.5760;
	2916	2869	0.003969	0.018781	0	0	0	0	0	0	1	-360	360	96.2673	-15.3005	-95.9100	16.9913;
	4142	3925	0.002849	0.014909	0	0	0	0	0	0	1	-360	360	0.3276	26.9135	-0.3057	-26.7992;
	4142	2245	0.00439	0.02451	0	0	0	0	0	0	1	-360	360	-0.3276	-24.2491	0.3549	24.4016;
	123	12854	0.0002	0.0018	0	0	0	0	0	0	1	-360	360	-720.4189	71.7797	721.4146	-62.8182;
	123	12369	0.00025	0.00261	0	0	0	0	0	0	1	-360	360	720.4189	-64.1783	-719.1767	77.1467;
	10806	12854	0.0002	0.00176	0	0	0	0	0	0	1	-360	360	-727.2640	73.2333	728.2789	-64.3016;
	10806	1112	0.00025	0.00255	0	0	0	0	0	0	1	-360	360	727.2640	-65.4952	-725.9978	78.4100;
	12593	9027	0.012488	0.047413	0	0	0	0	0	0	1	-360	360	-28.4429	-1.6095	28.5459	2.0005;
	12593	455	0.010479	0.027711	0	0	0	0	0	0	1	-360	360	28.4429	1.9147	-28.3564	-1.6859;
	3745	10922	0.00044	0.00428	0	0	0	0	0	0	1	-360	360	1056.9071	-93.9884	-1052.5035	136.8236;
	3745	1898	0.00036	0.00475	0	0	0	0	0	0	1	-360	360	-1056.9071	106.9705	1060.5184	-59.3213;
	6938	7640	0.00058	0.00534	0	0	0	0	0	0	1	-360	360	875.0579	-274.9355	-870.2718	319.0011;
	6938	4543	0.00054	0.00589	0	0	0	0	0	0	1	-360	360	-875.0579	288.7909	879.5554	-239.7354;
	4229	2024	0.00206	0.02057	0	0	0	0	0	0	1	-360	360	77.4832	35.1315	-77.3479	-33.7806;
	4229	9388	0.00077	0.00872	0	0	0	0	0	0	1	-360	360	-77.4832	4.4650	77.5253	-3.9884;
	5543	13575	0.00161	0.01963	0	0	0	0	0	0	1	-360	360	-381.9731	8.1526	384.0871	17.6227;
	5543	9388	0.00075	0.00888	0	0	0	0	0	0	1	-360	360	381.9731	25.2977	-380.9844	-13.5920;
	2764	10638	0.00016	0.00152	0	0	0	0	0	0	1	-360	360	-759.5453	3.7297	760.3869	4.2659;
	2764	10338	0.00019	0.00163	0	0	0	0	0	0	1	-360	360	759.5453	1.4909	-758.5459	7.0831;
	7963	10638	0.00015	0.0016	0	0	0	0	0	0	1	-360	360	-698.9018	-13.0854	699.5702	20.2150;
	7963	10338	0.00015	0.00183	0	0	0	0	0	0	1	-360	360	698.9018	17.9322	-698.2332	-9.7752;
	5383	4802	0.00121	0.01426	0	0	0	0	0	0	1	-360	360	-436.8904	-137.4871	439.2029	164.7397;
	5383	8035	0.00116	0.01456	0	0	0	0	0	0	1	-360	360	436.8904	201.0088	-434.4463	-170.3308;
	663	204	0.00068	0.00727	0	0	0	0	0	0	1	-360	360	943.1569	-36.0326	-937.7476	93.8648;
	663	6973	0.0007	0.00734	0	0	0	0	0	0	1	-360	360	-943.1569	61.4648	948.7409	-2.9132;
	11598	204	0.00076	0.00712	0	0	0	0	0	0	1	-360	360	960.6876	-49.1628	-954.4079	107.9939;
	11598	6973	0.0008	0.00719	0	0	0	0	0	0	1	-360	360	-960.6876	77.9775	967.3240	-18.3328;
	2983	2257	0.0002	0.0022	0	0	0	0	0	0	1	-360	360	-17.0403	-160.0552	17.0879	160.5788;
	2983	10869	0.0002	0.0022	0	0	0	0	0	0	1	-360	360	17.0403	166.8254	-16.9886	-166.2570;
	411	4997	0.000205	0.00215	0	0	0	0	0	0	1	-360	360	39.9497	-159.7969	-39.8986	160.3330;
	411	10869	0.000205	0.00215	0	0	0	0	0	0	1	-360	360	-39.9497	166.6952	40.0051	-166.1146;
	8649	12423	0.00053	0.00589	0	0	0	0	0	0	1	-360	360	-213.9819	-11.3917	214.2007	13.8228;
	8649	1165	0.00046	0.00675	0	0	0	0	0	0	1	-360	360	213.9819	28.2348	-213.7893	-25.4082;
	13485	12423	0.00054	0.00577	0	0	0	0	0	0	1	-360	360	-225.0253	-11.6869	225.2718	14.3207;
	13485	1165	0.00045	0.00625	0	0	0	0	0	0	1	-360	360	225.0253	28.5384	-224.8172	-25.6474;
	2363	2209	0.00275	0.02752	0	0	0	0	0	0	1	-360	360	-100.9652	-71.2990	101.3106	74.7558;
	2363	11249	0.00184	0.01515	0	0	0	0	0	0	1	-360	360	100.9652	126.2627	-100.5698	-123.0071;
	3314	10019	0.00438	0.02432	0	0	0	0	0	0	1	-360	360	-12.9147	-20.9434	12.9418	21.0937;
	3314	879	0.0043	0.01949	0	0	0	0	0	0	1	-360	360	12.9147	24.1767	-12.8818	-24.0272;
	12347	10227	0.00033	0.00269	0	0	0	0	0	0	1	-360	360	188.3301	92.0084	-188.2028	-90.9711;
	12347	2517	0.00243	0.01904	0	0	0	0	0	0	1	-360	360	-188.3301	-53.7160	189.1481	60.1255;
	1326	10227	0.00034	0.00263	0	0	0	0	0	0	1	-360	360	192.5958	92.8281	-192.4594	-91.7730;
	1326	2517	0.00248	0.01864	0	0	0	0	0	0	1	-360	360	-192.5958	-53.7952	193.4662	60.3374;
	9864	13169	0.00122	0.01249	0	0	0	0	0	0	1	-360	360	-443.0029	70.5075	445.2484	-47.5185;
	9864	5959	0.00106	0.01031	0	0	0	0	0	0	1	-360	360	443.0029	-32.8558	-441.0896	51.4653;
	4830	13169	0.00119	0.01273	0	0	0	0	0	0	1	-360	360	-442.7858	70.3111	444.9728	-46.9157;
	4830	5959	0.00108	0.01009	0	0	0	0	0	0	1	-360	360	442.7858	-32.5892	-440.8393	50.7746;
	12318	6464	0.001039	0.013711	0	0	0	0	0	0	1	-360	360	10.5617	-5.2149	-10.5604	5.2321;
	12318	7516	0.00114	0.011409	0	0	0	0	0	0	1	-360	360	-10.5617	9.5952	10.5638	-9.5741;
	11537	8566	0.001021	0.013969	0	0	0	0	0	0	1	-360	360	-25.0181	-6.7894	25.0243	6.8744;
	11537	7516	0.001169	0.011159	0	0	0	0	0	0	1	-360	360	25.0181	11.1852	-25.0102	-11.1094;
	13343	12066	0	0.000271	0	0	0	0	0	0	1	-360	360	-0.0000	0.0000	-0.0000	0.0000;
	3313	12066	0	0.000271	0	0	0	0	0	0	1	-360	360	-0.0000	0.0000	-0.0000	0.0000;
	1196	218	0.009372	0.035702	0	0	0	0	0	0	1	-360	360	12.0754	-3.2549	-12.0606	3.3112;
	1196	3002	0.029157	0.103686	0	0	0	0	0	0	1	-360	360	-12.0754	3.8903	12.1227	-3.7222;
	780	8041	0.00065	0.00673	0	0	0	0	0	0	1	-360	360	-14.3283	-181.3386	14.5337	183.4654;
	780	6114	0.00066	0.00658	0	0	0	0	0	0	1	-360	360	14.3283	210.8248	-14.0469	-208.0188;
	5179	3568	0.000969	0.006021	0	0	0	0	0	0	1	-360	360	-66.5884	-42.8265	66.6453	43.1804;
	5179	3085	0.00099	0.005901	0	0	0	0	0	0	1	-360	360	66.5884	45.4610	-66.5280	-45.1014;
	1666	7897	0.00088	0.006599	0	0	0	0	0	0	1	-360	360	0.7070	14.4694	-0.7053	-14.4560;
	1666	6301	0.00086	0.006729	0	0	0	0	0	0	1	-360	360	-0.7070	-12.1611	0.7083	12.1707;
	12861	4782	9e-05	0.00077	0	0	0	0	0	0	1	-360	360	386.6634	-220.1894	-386.4990	221.5964;
	12861	6207	9e-05	0.00078	0	0	0	0	0	0	1	-360	360	-386.6634	223.2340	386.8290	-221.7990;
	7212	4782	8e-05	0.00082	0	0	0	0	0	0	1	-360	360	131.1331	130.2987	-131.1080	-130.0413;
	7212	11151	8e-05	0.00076	0	0	0	0	0	0	1	-360	360	-131.1331	-127.5011	131.1577	127.7347;
	9869	8041	9e-05	0.00074	0	0	0	0	0	0	1	-360	360	296.2312	268.2523	-296.0977	-267.1543;
	9869	6207	9e-05	0.00073	0	0	0	0	0	0	1	-360	360	-296.2312	-265.0879	296.3634	266.1597;
	6015	3568	0.00062	0.003781	0	0	0	0	0	0	1	-360	360	-32.0428	-145.2371	32.1720	146.0249;
	6015	1131	0.000599	0.0035	0	0	0	0	0	0	1	-360	360	32.0428	146.1713	-31.9165	-145.4331;
	10035	7897	0.00064	0.00274	0	0	0	0	0	0	1	-360	360	160.0560	-113.8235	-159.8172	114.8460;
	10035	1910	0.000651	0.00268	0	0	0	0	0	0	1	-360	360	-160.0560	114.7124	160.3002	-113.7070;
	9951	1939	0.00055	0.00685	0	0	0	0	0	0	1	-360	360	-732.7641	-21.3224	735.5873	56.4832;
	9951	557	0.00061	0.00639	0	0	0	0	0	0	1	-360	360	732.7641	37.0895	-729.6277	-4.2337;
	8771	8041	0.00042	0.00523	0	0	0	0	0	0	1	-360	360	261.3750	-87.9745	-261.0750	91.7108;
	8771	12272	0.00045	0.00605	0	0	0	0	0	0	1	-360	360	-261.3750	99.1744	261.7054	-94.7332;
	8284	4782	0.0003	0.00228	0	0	0	0	0	0	1	-360	360	-83.6980	99.7191	83.7446	-99.3646;
	8284	13171	0.00026	0.00264	0	0	0	0	0	0	1	-360	360	83.6980	-93.0358	-83.6607	93.4150;
	4891	7738	0.00536	0.03568	0	0	0	0	0	0	1	-360	360	181.3842	27.8197	-179.6275	-16.1255;
...
];

%%-----  OPF Data  -----%%
%% generator cost data
%	1	startup	shutdown	n	x1	y1	...	xn	yn
%	2	startup	shutdown	n	c(n-1)	...	c0
mpc.gencost = [
	2	0	0	3	0	1	0;
	2	0	0	3	0	1	0;
	2	0	0	3	0	1	0;
	2	0	0	3	0	1	0;
	2	0	0	3	0	1	0;
	2	0	0	3	0	1	0;
	2	0	0	3	0	1	0;
	2	0	0	3	0	1	0;
	2	0	0	3	0	1	0;
	2	0	0	3	0	1	0;
	2	0	0	3	0	1	0;
	2	0	0	3	0	1	0;
	2	0	0	3	0	1	0;
	2	0	0	3	0	1	0;
	2	0	0	3	0	1	0;
	2	0	0	3	0	1	0;
	2	0	0	3	0	1	0;
	2	0	0	3	0	1	0;
	2	0	0	3	0	1	0;
	2	0	0	3	0	1	0;
	2	0	0	3	0	1	0;
	2	0	0	3	0	1	0;
	2	0	0	3	0	1	0;
	2	0	0	3	0	1	0;
	2	0	0	3	0	1	0;
	2	0	0	3	0	1	0;
	2	0	0	3	0	1	0;
	2	0	0	3	0	1	0;
	2	0	0	3	0	1	0;
	2	0	0	3	0	1	0;
	2	0	0	3	0	1	0;
	2	0	0	3	0	1	0;
	2	0	0	3	0	1	0;
	2	0	0	3	0	1	0;
	2	0	0	3	0	1	0;
	2	0	0	3	0	1	0;
	2	0	0	3	0	1	0;
	2	0	0	3	0	1	0;
	2	0	0	3	0	1	0;
	2	0	0	3	0	1	0;
	2	0	0	3	0	1	0;
	2	0	0	3	0	1	0;
	2	0	0	3	0	1	0;
	2	0	0	3	0	1	0;
	2	0	0	3	0	1	0;
	2	0	0	3	0	1	0;
	2	0	0	3	0	1	0;
	2	0	0	3	0	1	0;
	2	0	0	3	0	1	0;
	2	0	0	3	0	1	0;
	2	0	0	3	0	1	0;
	2	0	0	3	0	1	0;
	2	0	0	3	0	1	0;
	2	0	0	3	0	1	0;
	2	0	0	3	0	1	0;
	2	0	0	3	0	1	0;
	2	0	0	3	0	1	0;
	2	0	0	3	0	1	0;
	2	0	0	3	0	1	0;
	2	0	0	3	0	1	0;
	2	0	0	3	0	1	0;
	2	0	0	3	0	1	0;
	2	0	0	3	0	1	0;
	2	0	0	3	0	1	0;
	2	0	0	3	0	1	0;
	2	0	0	3	0	1	0;
	2	0	0	3	0	1	0;
	2	0	0	3	0	1	0;
	2	0	0	3	0	1	0;
	2	0	0	3	0	1	0;
	2	0	0	3	0	1	0;
	2	0	0	3	0	1	0;
	2	0	0	3	0	1	0;
	2	0	0	3	0	1	0;
	2	0	0	3	0	1	0;
	2	0	0	3	0	1	0;
	2	0	0	3	0	1	0;
	2	0	0	3	0	1	0;
	2	0	0	3	0	1	0;
	2	0	0	3	0	1	0;
	2	0	0	3	0	1	0;
	2	0	0	3	0	1	0;
	2	0	0	3	0	1	0;
	2	0	0	3	0	1	0;
	2	0	0	3	0	1	0;
	2	0	0	3	0	1	0;
	2	0	0	3	0	1	0;
	2	0	0	3	0	1	0;
	2	0	0	3	0	1	0;
	2	0	0	3	0	1	0;
	2	0	0	3	0	1	0;
	2	0	0	3	0	1	0;
	2	0	0	3	0	1	0;
	2	0	0	3	0	1	0;
	2	0	0	3	0	1	0;
	2	0	0	3	0	1	0;
	2	0	0	3	0	1	0;
	2	0	0	3	0	1	0;
	2	0	0	3	0	1	0;
	2	0	0	3	0	1	0;
	2	0	0	3	0	1	0;
	2	0	0	3	0	1	0;
	2	0	0	3	0	1	0;
	2	0	0	3	0	1	0;
	2	0	0	3	0	1	0;
	2	0	0	3	0	1	0;
	2	0	0	3	0	1	0;
	2	0	0	3	0	1	0;
	2	0	0	3	0	1	0;
	2	0	0	3	0	1	0;
	2	0	0	3	0	1	0;
	2	0	0	3	0	1	0;
	2	0	0	3	0	1	0;
	2	0	0	3	0	1	0;
	2	0	0	3	0	1	0;
	2	0	0	3	0	1	0;
	2	0	0	3	0	1	0;
	2	0	0	3	0	1	0;
	2	0	0	3	0	1	0;
	2	0	0	3	0	1	0;
	2	0	0	3	0	1	0;
	2	0	0	3	0	1	0;
	2	0	0	3	0	1	0;
	2	0	0	3	0	1	0;
	2	0	0	3	0	1	0;
	2	0	0	3	0	1	0;
	2	0	0	3	0	1	0;
	2	0	0	3	0	1	0;
	2	0	0	3	0	1	0;
	2	0	0	3	0	1	0;
	2	0	0	3	0	1	0;
	2	0	0	3	0	1	0;
	2	0	0	3	0	1	0;
	2	0	0	3	0	1	0;
	2	0	0	3	0	1	0;
	2	0	0	3	0	1	0;
	2	0	0	3	0	1	0;
	2	0	0	3	0	1	0;
	2	0	0	3	0	1	0;
	2	0	0	3	0	1	0;
	2	0	0	3	0	1	0;
	2	0	0	3	0	1	0;
	2	0	0	3	0	1	0;
	2	0	0	3	0	1	0;
	2	0	0	3	0	1	0;
	2	0	0	3	0	1	0;
	2	0	0	3	0	1	0;
	2	0	0	3	0	1	0;
	2	0	0	3	0	1	0;
	2	0	0	3	0	1	0;
	2	0	0	3	0	1	0;
	2	0	0	3	0	1	0;
	2	0	0	3	0	1	0;
	2	0	0	3	0	1	0;
	2	0	0	3	0	1	0;
	2	0	0	3	0	1	0;
	2	0	0	3	0	1	0;
	2	0	0	3	0	1	0;
	2	0	0	3	0	1	0;
	2	0	0	3	0	1	0;
	2	0	0	3	0	1	0;
	2	0	0	3	0	1	0;
	2	0	0	3	0	1	0;
	2	0	0	3	0	1	0;
	2	0	0	3	0	1	0;
	2	0	0	3	0	1	0;
	2	0	0	3	0	1	0;
	2	0	0	3	0	1	0;
	2	0	0	3	0	1	0;
	2	0	0	3	0	1	0;
	2	0	0	3	0	1	0;
	2	0	0	3	0	1	0;
	2	0	0	3	0	1	0;
	2	0	0	3	0	1	0;
	2	0	0	3	0	1	0;
	2	0	0	3	0	1	0;
	2	0	0	3	0	1	0;
	2	0	0	3	0	1	0;
	2	0	0	3	0	1	0;
	2	0	0	3	0	1	0;
	2	0	0	3	0	1	0;
	2	0	0	3	0	1	0;
	2	0	0	3	0	1	0;
	2	0	0	3	0	1	0;
	2	0	0	3	0	1	0;
	2	0	0	3	0	1	0;
	2	0	0	3	0	1	0;
	2	0	0	3	0	1	0;
	2	0	0	3	0	1	0;
	2	0	0	3	0	1	0;
	2	0	0	3	0	1	0;
	2	0	0	3	0	1	0;
	2	0	0	3	0	1	0;
	2	0	0	3	0	1	0;
	2	0	0	3	0	1	0;
	2	0	0	3	0	1	0;
	2	0	0	3	0	1	0;
	2	0	0	3	0	1	0;
	2	0	0	3	0	1	0;
	2	0	0	3	0	1	0;
...
];
